      1 'GENROE' 1     5.0000      0.70000E-01  0.90000      0.90000E-01
          4.2800       0.0000       1.8400       1.7500      0.41000
         0.60000      0.20000      0.12000      0.11000      0.39000    /
      3 'GENCLS' 1     5.0000       0.0000    /
