      1 'GENROU' 1     4.0000      0.32000E-01  0.55000      0.60000E-01
          2.0500       0.0000       2.1100       2.0200      0.29500
         0.50500      0.23000      0.16000      0.83000E-01  0.41900    /
      1 'PSS2A'  1          1            0            3            0
               5            1       2.0000       2.0000       0.0000
          2.0000       0.0000       2.0000      0.20000       1.0000
         0.50000      0.10000       10.000      0.15000      0.30000E-01
         0.15000      0.30000E-01  0.10000     -0.10000     /
      1 'IEEET1' 1     0.0000       50.000      0.20000E-01   1.0000
         -1.0000     -0.57000E-01  0.54100      0.86000E-01   1.0200
          0.0000       3.0820      0.38000E-01   4.1090      0.30000    /
      1 'TGOV1'  1    0.10000      0.49000       1.0000      0.22700
          2.5700       9.0000      0.20000E-01/
      2 'GENROU' 1     6.5000      0.60000E-01  0.20000      0.50000E-01
          6.5000       0.0000       1.8000       1.7500      0.60000
         0.80000      0.13000      0.15000      0.90000E-01  0.38000    /
      2 'PSS2A'  1          1            0            3            0
               5            1       2.0000       2.0000      0.10000
          2.0000       4.0000       2.0000      0.33300       1.0000
         0.50000      0.10000       20.000      0.52000E-01  0.30000E-01
         0.28100      0.30000E-01  0.10000     -0.10000     /
      2 'IEEET1' 1    0.60000E-01   20.000      0.10000E-01   5.0000
         -6.0000       1.0000      0.67000      0.10000       1.0000
          0.0000       3.0000      0.90000E-01   4.0000      0.36800    /
      2 'TGOV1'  1    0.50000E-01  0.50000E-01   1.0500      0.30000
          1.0000       2.1000       0.0000    /
      3 'GENROU' 1     6.5000      0.60000E-01  0.20000      0.50000E-01
          5.0000       0.0000       1.8000       1.7500      0.60000
         0.80000      0.13000      0.15000      0.90000E-01  0.38000    /
      3 'IEEET1' 1    0.60000E-01   20.000      0.10000E-01   5.0000
         -6.0000       1.0000      0.67000      0.10000       1.0000
          0.0000       3.0000      0.90000E-01   4.0000      0.36800    /
      6 'GENROU' 1     6.5000      0.60000E-01  0.20000      0.50000E-01
          5.0000       0.0000       1.8000       1.7500      0.60000
         0.80000      0.12000      0.15000      0.90000E-01  0.38000    /
      6 'IEEET1' 1    0.60000E-01   20.000      0.10000E-01   5.0000
         -6.0000       1.0000      0.67000      0.10000       1.0000
          0.0000       3.0000      0.90000E-01   4.0000      0.36800    /
      8 'GENROU' 1     6.5000      0.60000E-01  0.20000      0.50000E-01
          5.0000       0.0000       1.8000       1.7500      0.60000
         0.80000      0.12000      0.15000      0.90000E-01  0.38000    /
      8 'IEEET1' 1    0.60000E-01   20.000      0.10000E-01   5.0000
         -6.0000       1.0000      0.67000      0.10000       1.0000
          0.0000       3.0000      0.90000E-01   4.0000      0.36800    /
