// IEEE_9bus.dyr
1 'GENSAL' 1 8.96 0.05 0.05  9.55 1.60 0.3615  0.24 0.1508  0.10     0.06 1.01 1.02   /
2 'GENROU' 1 6.00 0.05 0.535 0.05 3.33 0.67    1.72 1.66    0.23     0.37 0.21 0.10   1.01 1.02 /
3 'GENROU' 1 5.89 0.05 0.60  0.05 2.35 0.47    1.68 1.61    0.23206  0.32 0.21 0.1536 1.01 1.02 /
// exciter
1 'IEEET1' 1 0.0 20.0 0.2 3.0 -3.0 1.0 0.314 0.063 0.35  0.0 2.8 0.3034 3.73 1.2884 /
2 'IEEET1' 1 0.0 20.0 0.2 3.0 -3.0 1.0 0.314 0.063 0.35  0.0 2.8 0.3034 3.73 1.2884 /
3 'IEEET1' 1 0.0 20.0 0.2 3.0 -3.0 1.0 0.314 0.063 0.35  0.0 2.8 0.3034 3.73 1.2884 /
// governor
1,  'IEESGO', 1, 25.0, 0,1.0,1.0,12.5,  0, 5.0,3.0,0.5,  1.0,    0,/
2,  'IEESGO', 1, 25.0, 0,1.0,1.0,12.5,  0, 5.0,3.0,0.5,  1.0,    0,/
3,  'IEESGO', 1, 25.0, 0,1.0,1.0,12.5,  0, 5.0,3.0,0.5,  1.0,    0,/
// stabilizer
1,'PSS2A',1,1,0,3,0,5,1,2,2,0,2,4,2,0.250,1,0.5,0.1,30,0.15,0.03,0.15,0.03,0.1,-0.1,/
2,'PSS2A',1,1,0,3,0,5,1,2,2,0,2,4,2,0.250,1,0.5,0.1,30,0.15,0.03,0.15,0.03,0.1,-0.1,/
3,'PSS2A',1,1,0,3,0,5,1,2,2,0,2,4,2,0.250,1,0.5,0.1,30,0.15,0.03,0.15,0.03,0.1,-0.1,/
